10
 energy: -13.534140148166 gnorm: 0.000226266346 xtb: 6.6.0 (2ccbbd7)
C           -1.26735912888259        0.16437146211446       -0.01631137774697
C            0.02249159408950       -0.50650230445616       -0.42148237543509
C            1.25650525993586        0.08004842196466        0.21970290039277
O            0.06354564175131       -1.43101974736249       -1.19081282076522
H           -1.23336393664453        1.21854769605527       -0.28258061363161
H           -1.39665743491224        0.09288591739431        1.06142435976141
H           -2.10994138095090       -0.30777476152080       -0.51412560875775
H            1.34224222414967        1.13249478098613       -0.04173233013254
H            2.14358617296512       -0.44988923245426       -0.11636175750913
H            1.17894998849880        0.00683876727889        1.30227762382412
