13
 energy: -13.922490449220 gnorm: 0.000491627383 xtb: 6.6.0 (2ccbbd7)
C           -0.44964267164050       -1.17469619464659       -0.45996564833535
C            0.25524645520532       -0.08981681422396        0.36546413124515
N            1.48566093852287        0.39285001422450       -0.24389673020856
C           -0.67325673579680        1.09932151794097        0.59448463323780
H            0.21257108768192       -2.02442030863490       -0.61949749022704
H           -1.34082734805445       -1.52611622112067        0.05352979401841
H           -0.74404580975731       -0.77879956633420       -1.43114200590514
H            0.53562230720541       -0.51389070386701        1.33805992568406
H            2.13125952490781       -0.37509825576885       -0.39555215587137
H            1.28367047605835        0.80862073875054       -1.14814743184455
H           -0.15215033769876        1.86817557686015        1.15763418075886
H           -0.98709521556051        1.52186525748258       -0.35805393603218
H           -1.55701267107333        0.79200295933746        1.14708373347991
