23
 energy: -27.462661532220 gnorm: 0.000239512778 xtb: 6.6.0 (2ccbbd7)
C            2.18657596239555       -0.92695783777993        1.16851196553240
C            1.86307880883387       -0.74482421851940       -0.31169559044333
C            1.77433817659057        0.73479939025321       -0.67284951874045
N            0.57539777810895       -1.38088418717371       -0.59157354969942
C           -1.93533842681078        1.25966321799089        0.20665180186677
C           -1.68048826593386        0.07517251566362        1.08976106421988
C           -2.88680517558581        0.99057008642975       -0.93492250631741
O           -1.40823706668606        2.33236306215080        0.37270266844672
H            3.14672764037295       -0.47459153961109        1.40078594215799
H            1.41901969224062       -0.45426273055417        1.77454161771252
H            2.23047718340784       -1.98383629023106        1.42431864255624
H            2.67663012686668       -1.20246669829364       -0.90614991185567
H            2.71348207137430        1.23163250540217       -0.44542526203143
H            0.97873013237411        1.21521699242051       -0.11037937374555
H            1.56815597208700        0.85808117696355       -1.73429273298551
H            0.32739616972149       -1.24784057579487       -1.56674684540457
H            0.63260413452432       -2.37959972338479       -0.41883715298616
H           -0.90947928040129       -0.53214675122327        0.59859671454866
H           -2.57321827812258       -0.53145425084915        1.20834751618445
H           -1.30772573627388        0.39453109628404        2.05936010323022
H           -3.90100879657030        0.94292251927784       -0.54184224052084
H           -2.65618148944476        0.03525904483244       -1.39837880824592
H           -2.83412933307990        1.78865319575344       -1.67048254347578
